test/data/opendss/trans_simple.dss
clear

! Base Frequency
Set DefaultBaseFrequency=50

! New Circuit
New circuit.ut_trans
~ BasekV=11 BaseMVA=100 pu=1.0  ISC3=999999999  ISC1=999999999

! Transformer SC1318244
New Transformer.TX1 windings=2 Buses=[SourceBus 2] Conns=[Delta Wye] LeadLag=euro kVs=[11 11] kVAs=[500 500] %Rs=[5 5] XHL=10

! Transmission Lines
New Line.LINE1 Bus1=SourceBus Bus2=1 phases=3 X1=1 R1=30

! Loads
New Load.LOAD1 Phases=1 Bus1=2.1 kV=6 kW=0 kvar=100
New Load.LOAD2 Phases=1 Bus1=2.2 kV=6 kW=0 kvar=100
New Load.LOAD3 Phases=1 Bus1=2.3 kV=6 kW=0 kvar=100

! Set Voltage Bases
Set voltagebases=[11  .415]
Calcvoltagebases

! Solve network
solve
